502
# CELL(abcABC):   34.69537    34.69537    34.69537    90.00000    90.00000    90.00000  Step:         100  Bead:       0 x_centroid{angstrom}  cell{atomic_unit}
       C  7.65546e+00  1.10383e+01  1.06068e+01
       H  6.98132e+00  1.18225e+01  1.02376e+01
       H  7.11792e+00  1.00817e+01  1.06539e+01
       H  8.01305e+00  1.13058e+01  1.16101e+01
       H  8.51273e+00  1.09437e+01  9.92755e+00
       C  1.50591e+01  8.45037e+00  1.12842e+01
       H  1.56388e+01  8.24413e+00  1.21937e+01
       H  1.53198e+01  7.71579e+00  1.05114e+01
       H  1.52919e+01  9.46010e+00  1.09199e+01
       H  1.39865e+01  8.38005e+00  1.15095e+01
       C  1.23349e+01  1.63749e+01  1.22993e+01
       H  1.23783e+01  1.70118e+01  1.31932e+01
       H  1.29202e+01  1.68349e+01  1.14918e+01
       H  1.12908e+01  1.62659e+01  1.19782e+01
       H  1.27492e+01  1.53860e+01  1.25353e+01
       C  2.43479e+00  7.17618e+00  1.62089e+01
       H  2.31577e+00  7.95670e+00  1.69722e+01
       H  1.55407e+00  6.51986e+00  1.62119e+01
       H  3.33268e+00  6.58374e+00  1.64283e+01
       H  2.53836e+00  7.64475e+00  1.52211e+01
       C  5.29085e+00  1.68898e+01  2.54191e+00
       H  4.31647e+00  1.68434e+01  3.04608e+00
       H  6.07418e+00  1.71137e+01  3.27830e+00
       H  5.27054e+00  1.76774e+01  1.77664e+00
       H  5.50331e+00  1.59233e+01  2.06572e+00
       C  8.25189e+00  1.70196e+01  5.32294e+00
       H  9.01613e+00  1.72175e+01  6.08651e+00
       H  7.36481e+00  1.76345e+01  5.52618e+00
       H  7.97425e+00  1.59572e+01  5.34862e+00
       H  8.65348e+00  1.72697e+01  4.33162e+00
       C  2.25765e+00  9.97704e+00  1.33272e+01
       H  1.95793e+00  1.09377e+01  1.28873e+01
       H  2.80298e+00  9.38536e+00  1.25796e+01
       H  1.36315e+00  9.42672e+00  1.36481e+01
       H  2.90567e+00  1.01602e+01  1.41945e+01
       C  1.58819e+01  1.31779e+00  9.37214e+00
       H  1.69067e+01  1.14608e+00  9.72715e+00
       H  1.55007e+01  2.25722e+00  9.79156e+00
       H  1.52372e+01  4.91526e-01  9.69972e+00
       H  1.58767e+01  1.37719e+00  8.27544e+00
       C  2.18895e+00  1.62266e+01  1.36903e+01
       H  1.41873e+00  1.59980e+01  1.44393e+01
       H  3.10174e+00  1.56609e+01  1.39207e+01
       H  2.41071e+00  1.73020e+01  1.37067e+01
       H  1.82477e+00  1.59434e+01  1.26941e+01
       C  1.23984e+01  1.42203e+00  8.81185e+00
       H  1.14365e+01  1.57103e+00  8.30351e+00
       H  1.32032e+01  1.38942e+00  8.06518e+00
       H  1.23745e+01  4.74683e-01  9.36697e+00
       H  1.25801e+01  2.25182e+00  9.50786e+00
       C  3.92417e+00  1.12238e+01  1.03053e+01
       H  4.57708e+00  1.03738e+01  1.05441e+01
       H  2.99700e+00  1.08557e+01  9.84636e+00
       H  4.43842e+00  1.18957e+01  9.60565e+00
       H  3.68529e+00  1.17713e+01  1.12265e+01
       C  1.38329e+01  1.70105e+00  1.23238e+01
       H  1.48890e+01  1.40044e+00  1.23183e+01
       H  1.37499e+01  2.74285e+00  1.19866e+01
       H  1.34307e+01  1.61153e+00  1.33418e+01
       H  1.32641e+01  1.04902e+00  1.16480e+01
       C  1.13524e+01  9.98629e+00  1.87902e+00
       H  1.23032e+01  1.05159e+01  2.02691e+00
       H  1.15395e+01  9.02939e+00  1.37302e+00
       H  1.06830e+01  1.06023e+01  1.26369e+00
       H  1.08826e+01  9.79980e+00  2.85399e+00
       C  8.45249e+00  1.60104e+01  1.06313e+00
       H  9.35458e+00  1.60448e+01  4.37444e-01
       H  7.71619e+00  1.53357e+01  6.05592e-01
       H  8.02576e+00  1.70192e+01  1.14452e+00
       H  8.71304e+00  1.56418e+01  2.06455e+00
       C  5.64374e+00  8.26498e+00  1.51719e+01
       H  6.65225e+00  8.67639e+00  1.50322e+01
       H  4.92442e+00  8.85271e+00  1.45870e+01
       H  5.37216e+00  8.31247e+00  1.62350e+01
       H  5.62335e+00  7.21997e+00  1.48347e+01
       C  1.77977e+01  9.04085e+00  1.61643e+01
       H  1.86724e+01  9.66867e+00  1.59471e+01
       H  1.80836e+01  8.23809e+00  1.68570e+01
       H  1.74222e+01  8.60043e+00  1.52311e+01
       H  1.70107e+01  9.65383e+00  1.66232e+01
       C  1.05871e+01  1.30357e+01  1.08535e+01
       H  1.11096e+01  1.38593e+01  1.13569e+01
       H  9.64284e+00  1.34033e+01  1.04328e+01
       H  1.03756e+01  1.22381e+01  1.15776e+01
       H  1.12198e+01  1.26415e+01  1.00478e+01
       C  8.50283e+00  2.24010e+00  5.81545e+00
       H  9.33121e+00  1.55540e+00  5.58924e+00
       H  7.95628e+00  2.46862e+00  4.89060e+00
       H  8.90298e+00  3.16883e+00  6.24379e+00
       H  7.82115e+00  1.76794e+00  6.53557e+00
       C  9.53376e-02  4.91328e+00  3.51818e-01
       H  6.28902e-01  5.87306e+00  3.23752e-01
       H -3.27137e-01  4.70027e+00 -6.39429e-01
       H -7.14379e-01  4.96534e+00  1.09248e+00
       H  7.95178e-01  4.11386e+00  6.30782e-01
       C  1.45146e+01  3.45776e+00  2.60456e+00
       H  1.39254e+01  2.56500e+00  2.85433e+00
       H  1.46822e+01  3.49372e+00  1.51959e+00
       H  1.54809e+01  3.41545e+00  3.12466e+00
       H  1.39695e+01  4.35691e+00  2.92156e+00
       C  1.83686e+01  1.96636e+00  5.92305e+00
       H  1.87830e+01  1.16193e+00  6.54540e+00
       H  1.90782e+01  2.80357e+00  5.88801e+00
       H  1.74179e+01  2.31056e+00  6.35249e+00
       H  1.81972e+01  1.59171e+00  4.90504e+00
       C  1.60178e+01  8.04663e+00  7.56982e+00
       H  1.58021e+01  8.89255e+00  8.23623e+00
       H  1.57872e+01  8.32951e+00  6.53394e+00
       H  1.54029e+01  7.18407e+00  7.86032e+00
       H  1.70804e+01  7.77980e+00  7.64915e+00
       C  3.48620e+00  1.75810e+00  1.10769e+01
       H  3.38678e+00  2.77396e+00  1.14815e+01
       H  3.78614e+00  1.06962e+00  1.18785e+01
       H  4.24947e+00  1.75632e+00  1.02879e+01
       H  2.52441e+00  1.43547e+00  1.06561e+01
       C  1.23210e+01  6.67559e+00  1.41989e+01
       H  1.20533e+01  7.57009e+00  1.47762e+01
       H  1.33674e+01  6.75010e+00  1.38732e+01
       H  1.16671e+01  6.60245e+00  1.33201e+01
       H  1.21948e+01  5.78205e+00  1.48249e+01
       C  1.66493e+01  4.80846e+00  9.98566e+00
       H  1.68234e+01  5.80010e+00  1.04224e+01
       H  1.73647e+01  4.09167e+00  1.04110e+01
       H  1.67837e+01  4.85851e+00  8.89655e+00
       H  1.56272e+01  4.48057e+00  1.02128e+01
       C  5.29789e+00  6.97297e+00  2.64209e+00
       H  4.71138e+00  7.57468e+00  1.93448e+00
       H  5.37789e+00  5.94308e+00  2.26860e+00
       H  4.79973e+00  6.96957e+00  3.62091e+00
       H  6.30280e+00  7.40410e+00  2.74437e+00
       C  5.46541e+00  4.98191e+00  1.77335e+01
       H  5.44185e+00  4.59897e+00  1.67043e+01
       H  6.35747e+00  4.59841e+00  1.82468e+01
       H  4.56379e+00  4.65383e+00  1.82683e+01
       H  5.49865e+00  6.07922e+00  1.77140e+01
       C  1.25505e+01  1.40551e+01  7.89892e+00
       H  1.31026e+01  1.46559e+01  7.16502e+00
       H  1.28056e+01  1.29954e+01  7.76848e+00
       H  1.14725e+01  1.41951e+01  7.74628e+00
       H  1.28194e+01  1.43719e+01  8.91520e+00
       C  1.12304e+01  5.05357e+00  7.87021e+00
       H  1.21235e+01  5.66262e+00  7.67518e+00
       H  1.08901e+01  5.22162e+00  8.90008e+00
       H  1.14720e+01  3.99127e+00  7.73975e+00
       H  1.04352e+01  5.33536e+00  7.16813e+00
       C  7.78230e+00  1.02557e+01  3.14227e+00
       H  7.82598e+00  1.07861e+01  4.10312e+00
       H  8.23095e+00  1.08816e+01  2.35883e+00
       H  6.73521e+00  1.00450e+01  2.88570e+00
       H  8.33619e+00  9.31024e+00  3.21964e+00
       C  1.48198e+01  1.52999e+01  5.10577e-01
       H  1.55410e+01  1.52743e+01 -3.17336e-01
       H  1.51309e+01  1.60567e+01  1.24336e+00
       H  1.47830e+01  1.43141e+01  9.93655e-01
       H  1.38244e+01  1.55544e+01  1.22111e-01
       C  5.50310e+00  1.30797e+01  3.09215e+00
       H  4.63566e+00  1.37097e+01  2.85278e+00
       H  5.99848e+00  1.34664e+01  3.99305e+00
       H  6.20973e+00  1.30932e+01  2.25104e+00
       H  5.16782e+00  1.20494e+01  3.27206e+00
       C  3.90117e+00  1.47781e+01  1.08343e+01
       H  4.12985e+00  1.45675e+01  9.78078e+00
       H  4.75803e+00  1.44947e+01  1.14602e+01
       H  3.01788e+00  1.42017e+01  1.11416e+01
       H  3.69796e+00  1.58503e+01  1.09570e+01
       C  1.30742e+01  5.64836e+00  1.06668e+01
       H  1.37478e+01  5.66110e+00  1.15342e+01
       H  1.35873e+01  6.07652e+00  9.79516e+00
       H  1.21777e+01  6.24212e+00  1.08900e+01
       H  1.27835e+01  4.61282e+00  1.04458e+01
       C  8.79571e+00  2.17472e+00  9.54989e+00
       H  9.16620e+00  2.87315e+00  8.78772e+00
       H  8.11249e+00  2.70205e+00  1.02291e+01
       H  9.64448e+00  1.77580e+00  1.01210e+01
       H  8.26266e+00  1.34753e+00  9.06208e+00
       C  1.70553e+01  1.10521e+01  1.31628e+01
       H  1.72880e+01  1.16429e+01  1.40586e+01
       H  1.79550e+01  1.09648e+01  1.25400e+01
       H  1.62641e+01  1.15509e+01  1.25880e+01
       H  1.67155e+01  1.00521e+01  1.34616e+01
       C  1.27919e+00  4.00291e+00  8.70320e+00
       H  1.86466e+00  3.89316e+00  7.78120e+00
       H  8.11697e-01  4.99623e+00  8.72144e+00
       H  1.93777e+00  3.89627e+00  9.57518e+00
       H  5.01283e-01  3.22847e+00  8.73641e+00
       C  1.06320e+01  1.43133e+01  1.53921e+01
       H  1.09901e+01  1.40127e+01  1.43980e+01
       H  1.14851e+01  1.46292e+01  1.60079e+01
       H  1.01280e+01  1.34638e+01  1.58726e+01
       H  9.92554e+00  1.51484e+01  1.52902e+01
       C  2.77156e+00  1.70739e+01  1.72011e+01
       H  2.57418e+00  1.61345e+01  1.77351e+01
       H  1.83807e+00  1.74463e+01  1.67575e+01
       H  3.50827e+00  1.68950e+01  1.64062e+01
       H  3.16599e+00  1.78197e+01  1.79045e+01
       C  8.26813e+00  1.51313e+01  1.23845e+01
       H  8.98462e+00  1.55362e+01  1.16577e+01
       H  8.76917e+00  1.43865e+01  1.30169e+01
       H  7.43411e+00  1.46564e+01  1.18508e+01
       H  7.88528e+00  1.59479e+01  1.30109e+01
       C  1.33292e+01  1.07713e+01  5.67581e+00
       H  1.39184e+01  1.16092e+01  6.07140e+00
       H  1.25580e+01  1.04888e+01  6.40489e+00
       H  1.39904e+01  9.91363e+00  5.49336e+00
       H  1.28506e+01  1.10722e+01  4.73396e+00
       C  1.78524e+01  1.42172e+01  1.21293e+01
       H  1.86822e+01  1.35375e+01  1.18933e+01
       H  1.77325e+01  1.42833e+01  1.32184e+01
       H  1.69250e+01  1.38343e+01  1.16826e+01
       H  1.80681e+01  1.52144e+01  1.17224e+01
       C  1.84968e+01  8.83528e+00  1.04295e+01
       H  1.95698e+01  8.83280e+00  1.01960e+01
       H  1.80187e+01  9.70484e+00  9.95859e+00
       H  1.83591e+01  8.88726e+00  1.15175e+01
       H  1.80374e+01  7.91318e+00  1.00494e+01
       C  1.08125e+01  3.74994e+00  1.25036e+01
       H  1.00704e+01  3.36228e+00  1.32141e+01
       H  1.04211e+01  4.65633e+00  1.20225e+01
       H  1.10208e+01  2.99056e+00  1.17381e+01
       H  1.17406e+01  3.99018e+00  1.30395e+01
       C  1.37835e+01  3.74438e+00  6.19714e+00
       H  1.40861e+01  3.89783e+00  7.24196e+00
       H  1.28813e+01  3.11917e+00  6.16439e+00
       H  1.45916e+01  3.24472e+00  5.64869e+00
       H  1.35705e+01  4.71620e+00  5.73164e+00
       C  1.30015e+01  1.11272e+01  1.23267e+01
       H  1.32845e+01  1.17041e+01  1.14364e+01
       H  1.24979e+01  1.17867e+01  1.30462e+01
       H  1.39043e+01  1.07046e+01  1.27868e+01
       H  1.23229e+01  1.03136e+01  1.20376e+01
       C  1.58780e+00  1.21836e+01  3.13634e+00
       H  1.17673e+00  1.31087e+01  2.71056e+00
       H  2.55755e+00  1.23980e+01  3.60496e+00
       H  1.72253e+00  1.14394e+01  2.33983e+00
       H  8.94734e-01  1.17893e+01  3.89165e+00
       C  6.85799e+00  2.24509e+00  1.82517e+00
       H  5.79952e+00  2.43450e+00  1.60024e+00
       H  6.93563e+00  1.43927e+00  2.56774e+00
       H  7.31577e+00  3.15929e+00  2.22708e+00
       H  7.37960e+00  1.94729e+00  9.05388e-01
       C  7.46699e+00  8.53081e+00  1.83175e+01
       H  8.34236e+00  8.84176e+00  1.89035e+01
       H  7.10844e+00  7.55892e+00  1.86804e+01
       H  7.74848e+00  8.44432e+00  1.72599e+01
       H  6.66971e+00  9.27732e+00  1.84277e+01
       C  1.99887e+00  1.29718e+01  1.53345e+01
       H  2.08879e+00  1.36908e+01  1.61600e+01
       H  1.94943e+00  1.19523e+01  1.57402e+01
       H  2.87140e+00  1.30622e+01  1.46735e+01
       H  1.08451e+00  1.31822e+01  1.47635e+01
       C  1.04423e+01  8.73831e+00  9.37562e+00
       H  1.07739e+01  7.69454e+00  9.29941e+00
       H  1.06141e+01  9.10441e+00  1.03965e+01
       H  9.37102e+00  8.79917e+00  9.14192e+00
       H  1.10086e+01  9.35542e+00  8.66562e+00
       C  3.61024e+00  4.10293e+00  1.42521e+01
       H  2.87135e+00  3.63442e+00  1.35885e+01
       H  4.45313e+00  3.41551e+00  1.44055e+01
       H  3.13921e+00  4.32738e+00  1.52185e+01
       H  3.97400e+00  5.03382e+00  1.37963e+01
       C  1.45936e+01  1.37411e+01  1.41741e+01
       H  1.36852e+01  1.42068e+01  1.45789e+01
       H  1.46274e+01  1.26847e+01  1.44713e+01
       H  1.54772e+01  1.42604e+01  1.45680e+01
       H  1.45869e+01  1.38105e+01  1.30781e+01
       C  8.53074e-01  6.22636e+00  1.29098e+01
       H  1.84529e+00  6.69765e+00  1.29046e+01
       H  8.41382e-01  5.40519e+00  1.36392e+01
       H  6.31393e-01  5.83088e+00  1.19094e+01
       H  9.54335e-02  6.97175e+00  1.31869e+01
       C  1.10343e+01  7.59318e+00  5.15447e+00
       H  1.16627e+01  8.43880e+00  4.84515e+00
       H  1.04731e+01  7.86510e+00  6.05866e+00
       H  1.16714e+01  6.72396e+00  5.36604e+00
       H  1.03316e+01  7.34384e+00  4.34804e+00
       C  4.95316e+00  3.68164e+00  5.06132e+00
       H  4.93715e+00  3.33539e+00  4.01914e+00
       H  3.93154e+00  3.67651e+00  5.46489e+00
       H  5.35855e+00  4.70177e+00  5.10186e+00
       H  5.58513e+00  3.01268e+00  5.66078e+00
       C  1.70173e+01  1.31787e+01  5.65446e+00
       H  1.73293e+01  1.41459e+01  6.07140e+00
       H  1.69839e+01  1.32470e+01  4.55918e+00
       H  1.60202e+01  1.29209e+01  6.03511e+00
       H  1.77333e+01  1.24005e+01  5.95036e+00
       C  7.47593e+00  1.18658e+01  1.70166e+01
       H  6.58002e+00  1.18068e+01  1.76493e+01
       H  7.35605e+00  1.26767e+01  1.62860e+01
       H  7.61127e+00  1.09135e+01  1.64861e+01
       H  8.35549e+00  1.20655e+01  1.76437e+01
       C  6.38872e+00  1.75187e+01  1.06239e+01
       H  5.94882e+00  1.72388e+01  1.15906e+01
       H  6.14435e+00  1.67530e+01  9.87515e+00
       H  7.47917e+00  1.75959e+01  1.07250e+01
       H  5.98405e+00  1.84875e+01  1.03038e+01
       C  1.52822e+01  1.61531e+01  8.58494e+00
       H  1.55506e+01  1.54833e+01  7.75700e+00
       H  1.50138e+01  1.55585e+01  9.46793e+00
       H  1.44306e+01  1.67802e+01  8.28906e+00
       H  1.61361e+01  1.67956e+01  8.82986e+00
       C  1.54590e+01  6.31271e+00  1.66672e+01
       H  1.56785e+01  7.12477e+00  1.73733e+01
       H  1.44043e+01  6.36435e+00  1.63657e+01
       H  1.56542e+01  5.34654e+00  1.71512e+01
       H  1.60978e+01  6.41554e+00  1.57797e+01
       C  1.09653e+01  3.71734e+00  3.88522e+00
       H  1.15224e+01  4.30388e+00  3.14279e+00
       H  1.08099e+01  4.32414e+00  4.78729e+00
       H  1.15364e+01  2.81545e+00  4.14385e+00
       H  9.99225e+00  3.42615e+00  3.46731e+00
       C  8.83004e+00  1.55069e+01  8.60274e+00
       H  8.45110e+00  1.65301e+01  8.47764e+00
       H  8.97908e+00  1.50473e+01  7.61655e+00
       H  8.10438e+00  1.49136e+01  9.17556e+00
       H  9.78648e+00  1.55383e+01  9.14164e+00
       C  9.92420e+00  1.17937e+01  7.27684e+00
       H  9.18814e+00  1.23198e+01  7.89899e+00
       H  1.08578e+01  1.16750e+01  7.84104e+00
       H  1.01168e+01  1.23755e+01  6.36633e+00
       H  9.53816e+00  1.08038e+01  7.00182e+00
       C  1.55600e+01  1.59159e-01  4.56203e+00
       H  1.60620e+01 -4.39728e-01  5.33405e+00
       H  1.47042e+01 -4.00559e-01  4.16240e+00
       H  1.62659e+01  3.76363e-01  3.74945e+00
       H  1.52077e+01  1.10135e+00  5.00142e+00
       C  6.38785e+00  1.15585e+01  6.83515e+00
       H  6.91083e+00  1.25240e+01  6.84547e+00
       H  5.59007e+00  1.15678e+01  7.58916e+00
       H  7.09536e+00  1.07506e+01  7.06439e+00
       H  5.95001e+00  1.13882e+01  5.84246e+00
       C  7.95491e+00  6.03653e+00  8.67334e+00
       H  6.96427e+00  6.43536e+00  8.92738e+00
       H  8.53269e+00  5.88099e+00  9.59441e+00
       H  8.47843e+00  6.75044e+00  8.02373e+00
       H  7.84343e+00  5.07947e+00  8.14618e+00
       C  2.82684e+00  1.21897e+01  6.70660e+00
       H  2.02676e+00  1.26791e+01  6.13543e+00
       H  3.35128e+00  1.29407e+01  7.31269e+00
       H  3.53471e+00  1.17190e+01  6.01184e+00
       H  2.39430e+00  1.14234e+01  7.36359e+00
       C  3.97492e+00  1.78887e+01  8.09227e+00
       H  3.62999e+00  1.77592e+01  9.12710e+00
       H  3.13252e+00  1.82055e+01  7.46289e+00
       H  4.37383e+00  1.69353e+01  7.72032e+00
       H  4.76294e+00  1.86531e+01  8.06086e+00
       C  1.42724e+01  1.49673e+01  4.46982e+00
       H  1.44993e+01  1.48279e+01  3.40506e+00
       H  1.51382e+01  1.54191e+01  4.97246e+00
       H  1.40488e+01  1.39939e+01  4.92638e+00
       H  1.34023e+01  1.56280e+01  4.57491e+00
       C  9.64160e+00  1.86462e+01  1.26984e+01
       H  9.66787e+00  1.81841e+01  1.17024e+01
       H  1.06370e+01  1.90409e+01  1.29429e+01
       H  9.35310e+00  1.78940e+01  1.34447e+01
       H  8.90973e+00  1.94652e+01  1.27025e+01
       C  1.19657e+01  1.76604e+01  6.22930e+00
       H  1.30548e+01  1.77798e+01  6.15306e+00
       H  1.16115e+01  1.69982e+01  5.42897e+00
       H  1.14815e+01  1.86411e+01  6.12986e+00
       H  1.17137e+01  1.72230e+01  7.20504e+00
       C  1.24707e+01  5.13446e+00  1.82591e+01
       H  1.18368e+01  5.90781e+00  1.78050e+01
       H  1.18529e+01  4.47524e+00  1.88839e+01
       H  1.32417e+01  5.61094e+00  1.88798e+01
       H  1.29514e+01  4.54289e+00  1.74682e+01
       C  1.26159e+01  1.78920e+01  2.00066e+00
       H  1.36320e+01  1.82536e+01  1.79156e+00
       H  1.20858e+01  1.77234e+01  1.05339e+00
       H  1.20759e+01  1.86411e+01  2.59556e+00
       H  1.26712e+01  1.69492e+01  2.56119e+00
       C  5.80247e-01  1.35339e+01  8.97208e+00
       H  3.60476e-01  1.33093e+01  7.92128e+00
       H  6.54533e-01  1.25955e+01  9.53799e+00
       H -2.28660e-01  1.41506e+01  9.38485e+00
       H  1.52976e+00  1.40809e+01  9.03915e+00
       C  1.69475e+01  1.26739e+01  1.69973e+01
       H  1.61487e+01  1.22207e+01  1.63960e+01
       H  1.78733e+01  1.20978e+01  1.68678e+01
       H  1.66567e+01  1.26665e+01  1.80565e+01
       H  1.71108e+01  1.37086e+01  1.66672e+01
       C  1.78324e+01  1.56602e+01  2.78410e+00
       H  1.84562e+01  1.54796e+01  3.66994e+00
       H  1.84721e+01  1.57475e+01  1.89545e+00
       H  1.72651e+01  1.65906e+01  2.91994e+00
       H  1.71339e+01  1.48231e+01  2.65072e+00
       C  1.59082e+01  1.69682e+01  1.28647e+01
       H  1.55184e+01  1.61247e+01  1.22790e+01
       H  1.50838e+01  1.74464e+01  1.34106e+01
       H  1.63746e+01  1.76967e+01  1.21880e+01
       H  1.66554e+01  1.66030e+01  1.35821e+01
       C  1.63675e+00  7.62996e+00  6.53719e+00
       H  8.81996e-01  7.67833e+00  5.74056e+00
       H  1.48965e+00  6.71654e+00  7.12867e+00
       H  1.53663e+00  8.50785e+00  7.18962e+00
       H  2.63950e+00  7.61608e+00  6.08912e+00
       C  5.82260e+00  1.16322e+01  1.35946e+01
       H  5.83002e+00  1.24615e+01  1.28744e+01
       H  5.48138e+00  1.07165e+01  1.30934e+01
       H  5.14267e+00  1.18708e+01  1.44235e+01
       H  6.83739e+00  1.14786e+01  1.39855e+01
       C  5.92534e+00  1.51364e+01  1.50891e+01
       H  6.99768e+00  1.49178e+01  1.51836e+01
       H  5.76994e+00  1.62237e+01  1.50971e+01
       H  5.38442e+00  1.46818e+01  1.59301e+01
       H  5.55028e+00  1.47216e+01  1.41437e+01
       C  1.05367e+01  1.44125e+01  4.51395e+00
       H  1.13861e+01  1.37236e+01  4.41059e+00
       H  1.04773e+01  1.47669e+01  5.55132e+00
       H  9.60664e+00  1.38907e+01  4.25050e+00
       H  1.06776e+01  1.52713e+01  3.84422e+00
       C  4.86705e-01  1.72064e+01  8.80930e+00
       H  9.30596e-01  1.81574e+01  9.13160e+00
       H  1.27961e+00  1.65170e+01  8.49035e+00
       H -1.96277e-01  1.73899e+01  7.96898e+00
       H -6.77658e-02  1.67630e+01  9.64734e+00
       C  1.93663e+00  5.16056e+00  3.55477e+00
       H  1.47334e+00  4.27648e+00  4.01279e+00
       H  2.55490e+00  5.67772e+00  4.30059e+00
       H  1.15355e+00  5.84152e+00  3.19481e+00
       H  2.56645e+00  4.84762e+00  2.71109e+00
       C  1.74115e+01  1.33495e+00  1.13058e+00
       H  1.77714e+01  1.63958e+00  1.38382e-01
       H  1.71779e+01  2.22876e+00  1.72448e+00
       H  1.81904e+01  7.51231e-01  1.63971e+00
       H  1.65069e+01  7.21585e-01  1.01990e+00
       C  1.06111e+01  9.78412e+00  1.65100e+01
       H  1.15674e+01  9.49538e+00  1.69664e+01
       H  1.07584e+01  1.06659e+01  1.58723e+01
       H  9.88750e+00  1.00225e+01  1.73001e+01
       H  1.02306e+01  8.95400e+00  1.59015e+01
       C  9.14934e+00  5.76350e+00  1.59829e+01
       H  9.42378e+00  5.46912e+00  1.49608e+01
       H  9.78430e+00  6.59938e+00  1.63055e+01
       H  9.29476e+00  4.91183e+00  1.66612e+01
       H  8.09594e+00  6.07420e+00  1.60053e+01
       C  4.82790e+00  4.18867e+00  8.70379e+00
       H  4.08705e+00  4.74798e+00  9.28968e+00
       H  5.14856e+00  4.79030e+00  7.84480e+00
       H  4.38336e+00  3.25069e+00  8.34558e+00
       H  5.69612e+00  3.96555e+00  9.33790e+00
       C  1.32276e+01  1.21754e+01  1.72310e+01
       H  1.30790e+01  1.20237e+01  1.61542e+01
       H  1.23289e+01  1.18514e+01  1.77717e+01
       H  1.34109e+01  1.32405e+01  1.74231e+01
       H  1.40890e+01  1.15857e+01  1.75715e+01
       C  1.71770e+01  5.34634e+00  5.41899e+00
       H  1.71949e+01  4.76362e+00  4.48833e+00
       H  1.64208e+01  4.93215e+00  6.09854e+00
       H  1.69307e+01  6.39169e+00  5.19102e+00
       H  1.81631e+01  5.29940e+00  5.89963e+00
       C  1.56090e+01  1.12615e+01  2.73531e+00
       H  1.49771e+01  1.05606e+01  2.17318e+00
       H  1.57959e+01  1.08607e+01  3.74093e+00
       H  1.50981e+01  1.22304e+01  2.81755e+00
       H  1.65655e+01  1.13944e+01  2.21176e+00
       C  1.62187e+01  3.01604e+00  1.47180e+01
       H  1.57968e+01  4.01446e+00  1.48938e+01
       H  1.70929e+01  2.86681e+00  1.53661e+01
       H  1.65228e+01  2.92899e+00  1.36661e+01
       H  1.54606e+01  2.25419e+00  1.49449e+01
       C  1.56580e+01  1.20926e+01  9.11334e+00
       H  1.46024e+01  1.19525e+01  9.38122e+00
       H  1.58261e+01  1.31390e+01  8.82571e+00
       H  1.59124e+01  1.14367e+01  8.26990e+00
       H  1.62920e+01  1.18436e+01  9.97498e+00
       C  1.41752e+01  9.45077e+00  1.52890e+01
       H  1.48622e+01  1.02865e+01  1.54745e+01
       H  1.46375e+01  8.74915e+00  1.45829e+01
       H  1.32385e+01  9.83381e+00  1.48638e+01
       H  1.39582e+01  8.93837e+00  1.62357e+01
       C  2.95885e+00  1.55532e+01  5.40689e+00
       H  2.53576e+00  1.51409e+01  4.48095e+00
       H  2.26067e+00  1.53816e+01  6.23739e+00
       H  3.12492e+00  1.66322e+01  5.28587e+00
       H  3.91531e+00  1.50581e+01  5.62356e+00
       C  4.89493e+00  8.57085e+00  8.05428e+00
       H  5.02327e+00  8.68770e+00  6.96975e+00
       H  3.91416e+00  8.96654e+00  8.35011e+00
       H  5.68547e+00  9.12321e+00  8.57997e+00
       H  4.95578e+00  7.50701e+00  8.31932e+00
       C  1.44577e+01  7.36707e+00  3.56858e+00
       H  1.41942e+01  6.98007e+00  4.56227e+00
       H  1.51040e+01  6.64344e+00  3.05353e+00
       H  1.49921e+01  8.32031e+00  3.67714e+00
       H  1.35424e+01  7.52450e+00  2.98192e+00
       C  9.16009e+00  8.59468e+00  1.30986e+01
       H  1.00419e+01  9.24972e+00  1.30947e+01
       H  9.15340e+00  7.98233e+00  1.21869e+01
       H  8.24911e+00  9.20709e+00  1.31358e+01
       H  9.19473e+00  7.93762e+00  1.39776e+01
       C  9.46912e+00  6.15818e+00  1.47956e+00
       H  9.39871e+00  5.06997e+00  1.34873e+00
       H  8.63727e+00  6.50772e+00  2.10489e+00
       H  9.42104e+00  6.64720e+00  4.97638e-01
       H  1.04217e+01  6.41267e+00  1.96230e+00
       C  1.11565e+01  1.38495e+01  1.23510e+00
       H  1.13472e+01  1.48666e+01  1.60253e+00
       H  1.20255e+01  1.32150e+01  1.45415e+00
       H  1.09830e+01  1.38807e+01  1.51332e-01
       H  1.02689e+01  1.34379e+01  1.73440e+00
       L  0.00000e+00  0.00000e+00  0.00000e+00
       L  0.00000e+00  0.00000e+00  0.00000e+00

